.TITLE SRAM read power measurement circuit 

********************************************************************************
** Include libraries, parameters and other
********************************************************************************

.LIB "../includes.l" INCLUDES

********************************************************************************
** Setup and input
********************************************************************************

.TRAN 1p '4 * ram_frequency' SWEEP DATA=sweep_data
.OPTIONS BRIEF=1

* Input signal
Vprecharge n_precharge gnd PULSE (supply_v_lp 0 0 50p 50p 'precharge_max' 'ram_frequency')
Vprecharge2 n_precharge2 gnd PULSE (supply_v_lp 0 0 50p 50p 'precharge_max' 'ram_frequency')
Vwl n_wl_eva gnd PULSE (supply_v_lp 0 0 50p 50p 'wl_eva' 'ram_frequency')
* Power rail for the circuit under test.
* This allows us to measure power of a circuit under test without measuring the power of wave shaping and load circuitry.
V_selected vdd_selected gnd supply_v_lp

V_unselected vdd_unselected gnd supply_v_lp

********************************************************************************
** Measurement
********************************************************************************

* Measure the power required to propagate a rise and a fall transition through the subcircuit at 250MHz.
.MEASURE TRAN meas_current_selected INTEGRAL I(V_selected) FROM=0ns TO='4 * ram_frequency'
.MEASURE TRAN meas_avg_power_selected PARAM = '-(meas_current_selected/(4 * ram_frequency)) * supply_v_lp'

.MEASURE TRAN meas_current_unselected INTEGRAL I(V_unselected) FROM=0ns TO='4 * ram_frequency'
.MEASURE TRAN meas_avg_power_unselected PARAM = '-(meas_current_unselected/(4 * ram_frequency)) * supply_v_lp'

********************************************************************************
** Circuit
********************************************************************************

xsamp1 n_wl_eva tgate_l tgate_r n_hang_samp vdd_selected gnd samp1
xwrite gnd gnd tgate_l tgate_r vdd_selected gnd writedriver
xtgate1 n_bl_0 tgate_l vdd_lp gnd vdd_selected gnd RAM_tgate
xtgater n_br_0 tgate_r vdd_lp gnd vdd_selected gnd RAM_tgate
xprecharge n_precharge n_bl_0 n_br_0 vdd_selected gnd precharge
xtgatel_0 n_bl0_0 tgate_l gnd vdd_lp vdd_unselected gnd RAM_tgate
xtgater_0 n_br0_0 tgate_r gnd vdd_lp vdd_unselected gnd RAM_tgate
xprecharge0 n_precharge n_bl0_0 n_br0_0 vdd_unselected gnd precharge
xtgatel_1 n_bl1_0 tgate_l gnd vdd_lp vdd_unselected gnd RAM_tgate
xtgater_1 n_br1_0 tgate_r gnd vdd_lp vdd_unselected gnd RAM_tgate
xprecharge1 n_precharge n_bl1_0 n_br1_0 vdd_unselected gnd precharge
xtgatel_2 n_bl2_0 tgate_l gnd vdd_lp vdd_unselected gnd RAM_tgate
xtgater_2 n_br2_0 tgate_r gnd vdd_lp vdd_unselected gnd RAM_tgate
xprecharge2 n_precharge n_bl2_0 n_br2_0 vdd_unselected gnd precharge
Xwirel0 n_bl_0 n_bl_1 wire Rw=wire_memorycell_vertical_res/64 Cw=wire_memorycell_vertical_cap/64
Xwirer0 n_br_0 n_br_1 wire Rw=wire_memorycell_vertical_res/64 Cw=wire_memorycell_vertical_cap/64
Xsram0 gnd gnd n_bl_1 gnd n_br_1 gnd vdd_selected gnd memorycell
Xwirel1 n_bl_1 n_bl_2 wire Rw=wire_memorycell_vertical_res/64 Cw=wire_memorycell_vertical_cap/64
Xwirer1 n_br_1 n_br_2 wire Rw=wire_memorycell_vertical_res/64 Cw=wire_memorycell_vertical_cap/64
Xsram1 gnd gnd n_bl_2 gnd n_br_2 gnd vdd_selected gnd memorycell
Xwirel2 n_bl_2 n_bl_3 wire Rw=wire_memorycell_vertical_res/64 Cw=wire_memorycell_vertical_cap/64
Xwirer2 n_br_2 n_br_3 wire Rw=wire_memorycell_vertical_res/64 Cw=wire_memorycell_vertical_cap/64
Xsram2 gnd gnd n_bl_3 gnd n_br_3 gnd vdd_selected gnd memorycell
Xwirel3 n_bl_3 n_bl_4 wire Rw=wire_memorycell_vertical_res/64 Cw=wire_memorycell_vertical_cap/64
Xwirer3 n_br_3 n_br_4 wire Rw=wire_memorycell_vertical_res/64 Cw=wire_memorycell_vertical_cap/64
Xsram3 gnd gnd n_bl_4 gnd n_br_4 gnd vdd_selected gnd memorycell
Xwirel4 n_bl_4 n_bl_5 wire Rw=wire_memorycell_vertical_res/64 Cw=wire_memorycell_vertical_cap/64
Xwirer4 n_br_4 n_br_5 wire Rw=wire_memorycell_vertical_res/64 Cw=wire_memorycell_vertical_cap/64
Xsram4 gnd gnd n_bl_5 gnd n_br_5 gnd vdd_selected gnd memorycell
Xwirel5 n_bl_5 n_bl_6 wire Rw=wire_memorycell_vertical_res/64 Cw=wire_memorycell_vertical_cap/64
Xwirer5 n_br_5 n_br_6 wire Rw=wire_memorycell_vertical_res/64 Cw=wire_memorycell_vertical_cap/64
Xsram5 gnd gnd n_bl_6 gnd n_br_6 gnd vdd_selected gnd memorycell
Xwirel6 n_bl_6 n_bl_7 wire Rw=wire_memorycell_vertical_res/64 Cw=wire_memorycell_vertical_cap/64
Xwirer6 n_br_6 n_br_7 wire Rw=wire_memorycell_vertical_res/64 Cw=wire_memorycell_vertical_cap/64
Xsram6 gnd gnd n_bl_7 gnd n_br_7 gnd vdd_selected gnd memorycell
Xwirel7 n_bl_7 n_bl_8 wire Rw=wire_memorycell_vertical_res/64 Cw=wire_memorycell_vertical_cap/64
Xwirer7 n_br_7 n_br_8 wire Rw=wire_memorycell_vertical_res/64 Cw=wire_memorycell_vertical_cap/64
Xsram7 gnd gnd n_bl_8 gnd n_br_8 gnd vdd_selected gnd memorycell
Xwirel8 n_bl_8 n_bl_9 wire Rw=wire_memorycell_vertical_res/64 Cw=wire_memorycell_vertical_cap/64
Xwirer8 n_br_8 n_br_9 wire Rw=wire_memorycell_vertical_res/64 Cw=wire_memorycell_vertical_cap/64
Xsram8 gnd gnd n_bl_9 gnd n_br_9 gnd vdd_selected gnd memorycell
Xwirel9 n_bl_9 n_bl_10 wire Rw=wire_memorycell_vertical_res/64 Cw=wire_memorycell_vertical_cap/64
Xwirer9 n_br_9 n_br_10 wire Rw=wire_memorycell_vertical_res/64 Cw=wire_memorycell_vertical_cap/64
Xsram9 gnd gnd n_bl_10 gnd n_br_10 gnd vdd_selected gnd memorycell
Xwirel10 n_bl_10 n_bl_11 wire Rw=wire_memorycell_vertical_res/64 Cw=wire_memorycell_vertical_cap/64
Xwirer10 n_br_10 n_br_11 wire Rw=wire_memorycell_vertical_res/64 Cw=wire_memorycell_vertical_cap/64
Xsram10 gnd gnd n_bl_11 gnd n_br_11 gnd vdd_selected gnd memorycell
Xwirel11 n_bl_11 n_bl_12 wire Rw=wire_memorycell_vertical_res/64 Cw=wire_memorycell_vertical_cap/64
Xwirer11 n_br_11 n_br_12 wire Rw=wire_memorycell_vertical_res/64 Cw=wire_memorycell_vertical_cap/64
Xsram11 gnd gnd n_bl_12 gnd n_br_12 gnd vdd_selected gnd memorycell
Xwirel12 n_bl_12 n_bl_13 wire Rw=wire_memorycell_vertical_res/64 Cw=wire_memorycell_vertical_cap/64
Xwirer12 n_br_12 n_br_13 wire Rw=wire_memorycell_vertical_res/64 Cw=wire_memorycell_vertical_cap/64
Xsram12 gnd gnd n_bl_13 gnd n_br_13 gnd vdd_selected gnd memorycell
Xwirel13 n_bl_13 n_bl_14 wire Rw=wire_memorycell_vertical_res/64 Cw=wire_memorycell_vertical_cap/64
Xwirer13 n_br_13 n_br_14 wire Rw=wire_memorycell_vertical_res/64 Cw=wire_memorycell_vertical_cap/64
Xsram13 gnd gnd n_bl_14 gnd n_br_14 gnd vdd_selected gnd memorycell
Xwirel14 n_bl_14 n_bl_15 wire Rw=wire_memorycell_vertical_res/64 Cw=wire_memorycell_vertical_cap/64
Xwirer14 n_br_14 n_br_15 wire Rw=wire_memorycell_vertical_res/64 Cw=wire_memorycell_vertical_cap/64
Xsram14 gnd gnd n_bl_15 gnd n_br_15 gnd vdd_selected gnd memorycell
Xwirel15 n_bl_15 n_bl_16 wire Rw=wire_memorycell_vertical_res/64 Cw=wire_memorycell_vertical_cap/64
Xwirer15 n_br_15 n_br_16 wire Rw=wire_memorycell_vertical_res/64 Cw=wire_memorycell_vertical_cap/64
Xsram15 gnd gnd n_bl_16 gnd n_br_16 gnd vdd_selected gnd memorycell
Xwirel16 n_bl_16 n_bl_17 wire Rw=wire_memorycell_vertical_res/64 Cw=wire_memorycell_vertical_cap/64
Xwirer16 n_br_16 n_br_17 wire Rw=wire_memorycell_vertical_res/64 Cw=wire_memorycell_vertical_cap/64
Xsram16 gnd gnd n_bl_17 gnd n_br_17 gnd vdd_selected gnd memorycell
Xwirel17 n_bl_17 n_bl_18 wire Rw=wire_memorycell_vertical_res/64 Cw=wire_memorycell_vertical_cap/64
Xwirer17 n_br_17 n_br_18 wire Rw=wire_memorycell_vertical_res/64 Cw=wire_memorycell_vertical_cap/64
Xsram17 gnd gnd n_bl_18 gnd n_br_18 gnd vdd_selected gnd memorycell
Xwirel18 n_bl_18 n_bl_19 wire Rw=wire_memorycell_vertical_res/64 Cw=wire_memorycell_vertical_cap/64
Xwirer18 n_br_18 n_br_19 wire Rw=wire_memorycell_vertical_res/64 Cw=wire_memorycell_vertical_cap/64
Xsram18 gnd gnd n_bl_19 gnd n_br_19 gnd vdd_selected gnd memorycell
Xwirel19 n_bl_19 n_bl_20 wire Rw=wire_memorycell_vertical_res/64 Cw=wire_memorycell_vertical_cap/64
Xwirer19 n_br_19 n_br_20 wire Rw=wire_memorycell_vertical_res/64 Cw=wire_memorycell_vertical_cap/64
Xsram19 gnd gnd n_bl_20 gnd n_br_20 gnd vdd_selected gnd memorycell
Xwirel20 n_bl_20 n_bl_21 wire Rw=wire_memorycell_vertical_res/64 Cw=wire_memorycell_vertical_cap/64
Xwirer20 n_br_20 n_br_21 wire Rw=wire_memorycell_vertical_res/64 Cw=wire_memorycell_vertical_cap/64
Xsram20 gnd gnd n_bl_21 gnd n_br_21 gnd vdd_selected gnd memorycell
Xwirel21 n_bl_21 n_bl_22 wire Rw=wire_memorycell_vertical_res/64 Cw=wire_memorycell_vertical_cap/64
Xwirer21 n_br_21 n_br_22 wire Rw=wire_memorycell_vertical_res/64 Cw=wire_memorycell_vertical_cap/64
Xsram21 gnd gnd n_bl_22 gnd n_br_22 gnd vdd_selected gnd memorycell
Xwirel22 n_bl_22 n_bl_23 wire Rw=wire_memorycell_vertical_res/64 Cw=wire_memorycell_vertical_cap/64
Xwirer22 n_br_22 n_br_23 wire Rw=wire_memorycell_vertical_res/64 Cw=wire_memorycell_vertical_cap/64
Xsram22 gnd gnd n_bl_23 gnd n_br_23 gnd vdd_selected gnd memorycell
Xwirel23 n_bl_23 n_bl_24 wire Rw=wire_memorycell_vertical_res/64 Cw=wire_memorycell_vertical_cap/64
Xwirer23 n_br_23 n_br_24 wire Rw=wire_memorycell_vertical_res/64 Cw=wire_memorycell_vertical_cap/64
Xsram23 gnd gnd n_bl_24 gnd n_br_24 gnd vdd_selected gnd memorycell
Xwirel24 n_bl_24 n_bl_25 wire Rw=wire_memorycell_vertical_res/64 Cw=wire_memorycell_vertical_cap/64
Xwirer24 n_br_24 n_br_25 wire Rw=wire_memorycell_vertical_res/64 Cw=wire_memorycell_vertical_cap/64
Xsram24 gnd gnd n_bl_25 gnd n_br_25 gnd vdd_selected gnd memorycell
Xwirel25 n_bl_25 n_bl_26 wire Rw=wire_memorycell_vertical_res/64 Cw=wire_memorycell_vertical_cap/64
Xwirer25 n_br_25 n_br_26 wire Rw=wire_memorycell_vertical_res/64 Cw=wire_memorycell_vertical_cap/64
Xsram25 gnd gnd n_bl_26 gnd n_br_26 gnd vdd_selected gnd memorycell
Xwirel26 n_bl_26 n_bl_27 wire Rw=wire_memorycell_vertical_res/64 Cw=wire_memorycell_vertical_cap/64
Xwirer26 n_br_26 n_br_27 wire Rw=wire_memorycell_vertical_res/64 Cw=wire_memorycell_vertical_cap/64
Xsram26 gnd gnd n_bl_27 gnd n_br_27 gnd vdd_selected gnd memorycell
Xwirel27 n_bl_27 n_bl_28 wire Rw=wire_memorycell_vertical_res/64 Cw=wire_memorycell_vertical_cap/64
Xwirer27 n_br_27 n_br_28 wire Rw=wire_memorycell_vertical_res/64 Cw=wire_memorycell_vertical_cap/64
Xsram27 gnd gnd n_bl_28 gnd n_br_28 gnd vdd_selected gnd memorycell
Xwirel28 n_bl_28 n_bl_29 wire Rw=wire_memorycell_vertical_res/64 Cw=wire_memorycell_vertical_cap/64
Xwirer28 n_br_28 n_br_29 wire Rw=wire_memorycell_vertical_res/64 Cw=wire_memorycell_vertical_cap/64
Xsram28 gnd gnd n_bl_29 gnd n_br_29 gnd vdd_selected gnd memorycell
Xwirel29 n_bl_29 n_bl_30 wire Rw=wire_memorycell_vertical_res/64 Cw=wire_memorycell_vertical_cap/64
Xwirer29 n_br_29 n_br_30 wire Rw=wire_memorycell_vertical_res/64 Cw=wire_memorycell_vertical_cap/64
Xsram29 gnd gnd n_bl_30 gnd n_br_30 gnd vdd_selected gnd memorycell
Xwirel30 n_bl_30 n_bl_31 wire Rw=wire_memorycell_vertical_res/64 Cw=wire_memorycell_vertical_cap/64
Xwirer30 n_br_30 n_br_31 wire Rw=wire_memorycell_vertical_res/64 Cw=wire_memorycell_vertical_cap/64
Xsram30 gnd gnd n_bl_31 gnd n_br_31 gnd vdd_selected gnd memorycell
Xwirel31 n_bl_31 n_bl_32 wire Rw=wire_memorycell_vertical_res/64 Cw=wire_memorycell_vertical_cap/64
Xwirer31 n_br_31 n_br_32 wire Rw=wire_memorycell_vertical_res/64 Cw=wire_memorycell_vertical_cap/64
Xsram31 gnd gnd n_bl_32 gnd n_br_32 gnd vdd_selected gnd memorycell
Xwirel32 n_bl_32 n_bl_33 wire Rw=wire_memorycell_vertical_res/64 Cw=wire_memorycell_vertical_cap/64
Xwirer32 n_br_32 n_br_33 wire Rw=wire_memorycell_vertical_res/64 Cw=wire_memorycell_vertical_cap/64
Xsram32 gnd gnd n_bl_33 gnd n_br_33 gnd vdd_selected gnd memorycell
Xwirel33 n_bl_33 n_bl_34 wire Rw=wire_memorycell_vertical_res/64 Cw=wire_memorycell_vertical_cap/64
Xwirer33 n_br_33 n_br_34 wire Rw=wire_memorycell_vertical_res/64 Cw=wire_memorycell_vertical_cap/64
Xsram33 gnd gnd n_bl_34 gnd n_br_34 gnd vdd_selected gnd memorycell
Xwirel34 n_bl_34 n_bl_35 wire Rw=wire_memorycell_vertical_res/64 Cw=wire_memorycell_vertical_cap/64
Xwirer34 n_br_34 n_br_35 wire Rw=wire_memorycell_vertical_res/64 Cw=wire_memorycell_vertical_cap/64
Xsram34 gnd gnd n_bl_35 gnd n_br_35 gnd vdd_selected gnd memorycell
Xwirel35 n_bl_35 n_bl_36 wire Rw=wire_memorycell_vertical_res/64 Cw=wire_memorycell_vertical_cap/64
Xwirer35 n_br_35 n_br_36 wire Rw=wire_memorycell_vertical_res/64 Cw=wire_memorycell_vertical_cap/64
Xsram35 gnd gnd n_bl_36 gnd n_br_36 gnd vdd_selected gnd memorycell
Xwirel36 n_bl_36 n_bl_37 wire Rw=wire_memorycell_vertical_res/64 Cw=wire_memorycell_vertical_cap/64
Xwirer36 n_br_36 n_br_37 wire Rw=wire_memorycell_vertical_res/64 Cw=wire_memorycell_vertical_cap/64
Xsram36 gnd gnd n_bl_37 gnd n_br_37 gnd vdd_selected gnd memorycell
Xwirel37 n_bl_37 n_bl_38 wire Rw=wire_memorycell_vertical_res/64 Cw=wire_memorycell_vertical_cap/64
Xwirer37 n_br_37 n_br_38 wire Rw=wire_memorycell_vertical_res/64 Cw=wire_memorycell_vertical_cap/64
Xsram37 gnd gnd n_bl_38 gnd n_br_38 gnd vdd_selected gnd memorycell
Xwirel38 n_bl_38 n_bl_39 wire Rw=wire_memorycell_vertical_res/64 Cw=wire_memorycell_vertical_cap/64
Xwirer38 n_br_38 n_br_39 wire Rw=wire_memorycell_vertical_res/64 Cw=wire_memorycell_vertical_cap/64
Xsram38 gnd gnd n_bl_39 gnd n_br_39 gnd vdd_selected gnd memorycell
Xwirel39 n_bl_39 n_bl_40 wire Rw=wire_memorycell_vertical_res/64 Cw=wire_memorycell_vertical_cap/64
Xwirer39 n_br_39 n_br_40 wire Rw=wire_memorycell_vertical_res/64 Cw=wire_memorycell_vertical_cap/64
Xsram39 gnd gnd n_bl_40 gnd n_br_40 gnd vdd_selected gnd memorycell
Xwirel40 n_bl_40 n_bl_41 wire Rw=wire_memorycell_vertical_res/64 Cw=wire_memorycell_vertical_cap/64
Xwirer40 n_br_40 n_br_41 wire Rw=wire_memorycell_vertical_res/64 Cw=wire_memorycell_vertical_cap/64
Xsram40 gnd gnd n_bl_41 gnd n_br_41 gnd vdd_selected gnd memorycell
Xwirel41 n_bl_41 n_bl_42 wire Rw=wire_memorycell_vertical_res/64 Cw=wire_memorycell_vertical_cap/64
Xwirer41 n_br_41 n_br_42 wire Rw=wire_memorycell_vertical_res/64 Cw=wire_memorycell_vertical_cap/64
Xsram41 gnd gnd n_bl_42 gnd n_br_42 gnd vdd_selected gnd memorycell
Xwirel42 n_bl_42 n_bl_43 wire Rw=wire_memorycell_vertical_res/64 Cw=wire_memorycell_vertical_cap/64
Xwirer42 n_br_42 n_br_43 wire Rw=wire_memorycell_vertical_res/64 Cw=wire_memorycell_vertical_cap/64
Xsram42 gnd gnd n_bl_43 gnd n_br_43 gnd vdd_selected gnd memorycell
Xwirel43 n_bl_43 n_bl_44 wire Rw=wire_memorycell_vertical_res/64 Cw=wire_memorycell_vertical_cap/64
Xwirer43 n_br_43 n_br_44 wire Rw=wire_memorycell_vertical_res/64 Cw=wire_memorycell_vertical_cap/64
Xsram43 gnd gnd n_bl_44 gnd n_br_44 gnd vdd_selected gnd memorycell
Xwirel44 n_bl_44 n_bl_45 wire Rw=wire_memorycell_vertical_res/64 Cw=wire_memorycell_vertical_cap/64
Xwirer44 n_br_44 n_br_45 wire Rw=wire_memorycell_vertical_res/64 Cw=wire_memorycell_vertical_cap/64
Xsram44 gnd gnd n_bl_45 gnd n_br_45 gnd vdd_selected gnd memorycell
Xwirel45 n_bl_45 n_bl_46 wire Rw=wire_memorycell_vertical_res/64 Cw=wire_memorycell_vertical_cap/64
Xwirer45 n_br_45 n_br_46 wire Rw=wire_memorycell_vertical_res/64 Cw=wire_memorycell_vertical_cap/64
Xsram45 gnd gnd n_bl_46 gnd n_br_46 gnd vdd_selected gnd memorycell
Xwirel46 n_bl_46 n_bl_47 wire Rw=wire_memorycell_vertical_res/64 Cw=wire_memorycell_vertical_cap/64
Xwirer46 n_br_46 n_br_47 wire Rw=wire_memorycell_vertical_res/64 Cw=wire_memorycell_vertical_cap/64
Xsram46 gnd gnd n_bl_47 gnd n_br_47 gnd vdd_selected gnd memorycell
Xwirel47 n_bl_47 n_bl_48 wire Rw=wire_memorycell_vertical_res/64 Cw=wire_memorycell_vertical_cap/64
Xwirer47 n_br_47 n_br_48 wire Rw=wire_memorycell_vertical_res/64 Cw=wire_memorycell_vertical_cap/64
Xsram47 gnd gnd n_bl_48 gnd n_br_48 gnd vdd_selected gnd memorycell
Xwirel48 n_bl_48 n_bl_49 wire Rw=wire_memorycell_vertical_res/64 Cw=wire_memorycell_vertical_cap/64
Xwirer48 n_br_48 n_br_49 wire Rw=wire_memorycell_vertical_res/64 Cw=wire_memorycell_vertical_cap/64
Xsram48 gnd gnd n_bl_49 gnd n_br_49 gnd vdd_selected gnd memorycell
Xwirel49 n_bl_49 n_bl_50 wire Rw=wire_memorycell_vertical_res/64 Cw=wire_memorycell_vertical_cap/64
Xwirer49 n_br_49 n_br_50 wire Rw=wire_memorycell_vertical_res/64 Cw=wire_memorycell_vertical_cap/64
Xsram49 gnd gnd n_bl_50 gnd n_br_50 gnd vdd_selected gnd memorycell
Xwirel50 n_bl_50 n_bl_51 wire Rw=wire_memorycell_vertical_res/64 Cw=wire_memorycell_vertical_cap/64
Xwirer50 n_br_50 n_br_51 wire Rw=wire_memorycell_vertical_res/64 Cw=wire_memorycell_vertical_cap/64
Xsram50 gnd gnd n_bl_51 gnd n_br_51 gnd vdd_selected gnd memorycell
Xwirel51 n_bl_51 n_bl_52 wire Rw=wire_memorycell_vertical_res/64 Cw=wire_memorycell_vertical_cap/64
Xwirer51 n_br_51 n_br_52 wire Rw=wire_memorycell_vertical_res/64 Cw=wire_memorycell_vertical_cap/64
Xsram51 gnd gnd n_bl_52 gnd n_br_52 gnd vdd_selected gnd memorycell
Xwirel52 n_bl_52 n_bl_53 wire Rw=wire_memorycell_vertical_res/64 Cw=wire_memorycell_vertical_cap/64
Xwirer52 n_br_52 n_br_53 wire Rw=wire_memorycell_vertical_res/64 Cw=wire_memorycell_vertical_cap/64
Xsram52 gnd gnd n_bl_53 gnd n_br_53 gnd vdd_selected gnd memorycell
Xwirel53 n_bl_53 n_bl_54 wire Rw=wire_memorycell_vertical_res/64 Cw=wire_memorycell_vertical_cap/64
Xwirer53 n_br_53 n_br_54 wire Rw=wire_memorycell_vertical_res/64 Cw=wire_memorycell_vertical_cap/64
Xsram53 gnd gnd n_bl_54 gnd n_br_54 gnd vdd_selected gnd memorycell
Xwirel54 n_bl_54 n_bl_55 wire Rw=wire_memorycell_vertical_res/64 Cw=wire_memorycell_vertical_cap/64
Xwirer54 n_br_54 n_br_55 wire Rw=wire_memorycell_vertical_res/64 Cw=wire_memorycell_vertical_cap/64
Xsram54 gnd gnd n_bl_55 gnd n_br_55 gnd vdd_selected gnd memorycell
Xwirel55 n_bl_55 n_bl_56 wire Rw=wire_memorycell_vertical_res/64 Cw=wire_memorycell_vertical_cap/64
Xwirer55 n_br_55 n_br_56 wire Rw=wire_memorycell_vertical_res/64 Cw=wire_memorycell_vertical_cap/64
Xsram55 gnd gnd n_bl_56 gnd n_br_56 gnd vdd_selected gnd memorycell
Xwirel56 n_bl_56 n_bl_57 wire Rw=wire_memorycell_vertical_res/64 Cw=wire_memorycell_vertical_cap/64
Xwirer56 n_br_56 n_br_57 wire Rw=wire_memorycell_vertical_res/64 Cw=wire_memorycell_vertical_cap/64
Xsram56 gnd gnd n_bl_57 gnd n_br_57 gnd vdd_selected gnd memorycell
Xwirel57 n_bl_57 n_bl_58 wire Rw=wire_memorycell_vertical_res/64 Cw=wire_memorycell_vertical_cap/64
Xwirer57 n_br_57 n_br_58 wire Rw=wire_memorycell_vertical_res/64 Cw=wire_memorycell_vertical_cap/64
Xsram57 gnd gnd n_bl_58 gnd n_br_58 gnd vdd_selected gnd memorycell
Xwirel58 n_bl_58 n_bl_59 wire Rw=wire_memorycell_vertical_res/64 Cw=wire_memorycell_vertical_cap/64
Xwirer58 n_br_58 n_br_59 wire Rw=wire_memorycell_vertical_res/64 Cw=wire_memorycell_vertical_cap/64
Xsram58 gnd gnd n_bl_59 gnd n_br_59 gnd vdd_selected gnd memorycell
Xwirel59 n_bl_59 n_bl_60 wire Rw=wire_memorycell_vertical_res/64 Cw=wire_memorycell_vertical_cap/64
Xwirer59 n_br_59 n_br_60 wire Rw=wire_memorycell_vertical_res/64 Cw=wire_memorycell_vertical_cap/64
Xsram59 gnd gnd n_bl_60 gnd n_br_60 gnd vdd_selected gnd memorycell
Xwirel60 n_bl_60 n_bl_61 wire Rw=wire_memorycell_vertical_res/64 Cw=wire_memorycell_vertical_cap/64
Xwirer60 n_br_60 n_br_61 wire Rw=wire_memorycell_vertical_res/64 Cw=wire_memorycell_vertical_cap/64
Xsram60 gnd gnd n_bl_61 gnd n_br_61 gnd vdd_selected gnd memorycell
Xwirel61 n_bl_61 n_bl_62 wire Rw=wire_memorycell_vertical_res/64 Cw=wire_memorycell_vertical_cap/64
Xwirer61 n_br_61 n_br_62 wire Rw=wire_memorycell_vertical_res/64 Cw=wire_memorycell_vertical_cap/64
Xsram61 gnd gnd n_bl_62 gnd n_br_62 gnd vdd_selected gnd memorycell
Xwirel62 n_bl_62 n_bl_63 wire Rw=wire_memorycell_vertical_res/64 Cw=wire_memorycell_vertical_cap/64
Xwirer62 n_br_62 n_br_63 wire Rw=wire_memorycell_vertical_res/64 Cw=wire_memorycell_vertical_cap/64
Xsram62 gnd gnd n_bl_63 gnd n_br_63 gnd vdd_selected gnd memorycell
Xwirel63 n_bl_63 n_bl_64 wire Rw=wire_memorycell_vertical_res/64 Cw=wire_memorycell_vertical_cap/64
Xwirer63 n_br_63 n_br_64 wire Rw=wire_memorycell_vertical_res/64 Cw=wire_memorycell_vertical_cap/64
Xsram63 n_precharge2 gnd n_bl_64 gnd n_br_64 gnd vdd_selected gnd memorycell
Xwire0l0 n_bl0_0 n_bl0_1 wire Rw=wire_memorycell_vertical_res/64 Cw=wire_memorycell_vertical_cap/64
Xwire0r0 n_br0_0 n_br0_1 wire Rw=wire_memorycell_vertical_res/64 Cw=wire_memorycell_vertical_cap/64
Xsram_0_0 gnd gnd n_bl0_1 gnd n_br0_1 gnd vdd_unselected gnd memorycell
Xwire0l1 n_bl0_1 n_bl0_2 wire Rw=wire_memorycell_vertical_res/64 Cw=wire_memorycell_vertical_cap/64
Xwire0r1 n_br0_1 n_br0_2 wire Rw=wire_memorycell_vertical_res/64 Cw=wire_memorycell_vertical_cap/64
Xsram_0_1 gnd gnd n_bl0_2 gnd n_br0_2 gnd vdd_unselected gnd memorycell
Xwire0l2 n_bl0_2 n_bl0_3 wire Rw=wire_memorycell_vertical_res/64 Cw=wire_memorycell_vertical_cap/64
Xwire0r2 n_br0_2 n_br0_3 wire Rw=wire_memorycell_vertical_res/64 Cw=wire_memorycell_vertical_cap/64
Xsram_0_2 gnd gnd n_bl0_3 gnd n_br0_3 gnd vdd_unselected gnd memorycell
Xwire0l3 n_bl0_3 n_bl0_4 wire Rw=wire_memorycell_vertical_res/64 Cw=wire_memorycell_vertical_cap/64
Xwire0r3 n_br0_3 n_br0_4 wire Rw=wire_memorycell_vertical_res/64 Cw=wire_memorycell_vertical_cap/64
Xsram_0_3 gnd gnd n_bl0_4 gnd n_br0_4 gnd vdd_unselected gnd memorycell
Xwire0l4 n_bl0_4 n_bl0_5 wire Rw=wire_memorycell_vertical_res/64 Cw=wire_memorycell_vertical_cap/64
Xwire0r4 n_br0_4 n_br0_5 wire Rw=wire_memorycell_vertical_res/64 Cw=wire_memorycell_vertical_cap/64
Xsram_0_4 gnd gnd n_bl0_5 gnd n_br0_5 gnd vdd_unselected gnd memorycell
Xwire0l5 n_bl0_5 n_bl0_6 wire Rw=wire_memorycell_vertical_res/64 Cw=wire_memorycell_vertical_cap/64
Xwire0r5 n_br0_5 n_br0_6 wire Rw=wire_memorycell_vertical_res/64 Cw=wire_memorycell_vertical_cap/64
Xsram_0_5 gnd gnd n_bl0_6 gnd n_br0_6 gnd vdd_unselected gnd memorycell
Xwire0l6 n_bl0_6 n_bl0_7 wire Rw=wire_memorycell_vertical_res/64 Cw=wire_memorycell_vertical_cap/64
Xwire0r6 n_br0_6 n_br0_7 wire Rw=wire_memorycell_vertical_res/64 Cw=wire_memorycell_vertical_cap/64
Xsram_0_6 gnd gnd n_bl0_7 gnd n_br0_7 gnd vdd_unselected gnd memorycell
Xwire0l7 n_bl0_7 n_bl0_8 wire Rw=wire_memorycell_vertical_res/64 Cw=wire_memorycell_vertical_cap/64
Xwire0r7 n_br0_7 n_br0_8 wire Rw=wire_memorycell_vertical_res/64 Cw=wire_memorycell_vertical_cap/64
Xsram_0_7 gnd gnd n_bl0_8 gnd n_br0_8 gnd vdd_unselected gnd memorycell
Xwire0l8 n_bl0_8 n_bl0_9 wire Rw=wire_memorycell_vertical_res/64 Cw=wire_memorycell_vertical_cap/64
Xwire0r8 n_br0_8 n_br0_9 wire Rw=wire_memorycell_vertical_res/64 Cw=wire_memorycell_vertical_cap/64
Xsram_0_8 gnd gnd n_bl0_9 gnd n_br0_9 gnd vdd_unselected gnd memorycell
Xwire0l9 n_bl0_9 n_bl0_10 wire Rw=wire_memorycell_vertical_res/64 Cw=wire_memorycell_vertical_cap/64
Xwire0r9 n_br0_9 n_br0_10 wire Rw=wire_memorycell_vertical_res/64 Cw=wire_memorycell_vertical_cap/64
Xsram_0_9 gnd gnd n_bl0_10 gnd n_br0_10 gnd vdd_unselected gnd memorycell
Xwire0l10 n_bl0_10 n_bl0_11 wire Rw=wire_memorycell_vertical_res/64 Cw=wire_memorycell_vertical_cap/64
Xwire0r10 n_br0_10 n_br0_11 wire Rw=wire_memorycell_vertical_res/64 Cw=wire_memorycell_vertical_cap/64
Xsram_0_10 gnd gnd n_bl0_11 gnd n_br0_11 gnd vdd_unselected gnd memorycell
Xwire0l11 n_bl0_11 n_bl0_12 wire Rw=wire_memorycell_vertical_res/64 Cw=wire_memorycell_vertical_cap/64
Xwire0r11 n_br0_11 n_br0_12 wire Rw=wire_memorycell_vertical_res/64 Cw=wire_memorycell_vertical_cap/64
Xsram_0_11 gnd gnd n_bl0_12 gnd n_br0_12 gnd vdd_unselected gnd memorycell
Xwire0l12 n_bl0_12 n_bl0_13 wire Rw=wire_memorycell_vertical_res/64 Cw=wire_memorycell_vertical_cap/64
Xwire0r12 n_br0_12 n_br0_13 wire Rw=wire_memorycell_vertical_res/64 Cw=wire_memorycell_vertical_cap/64
Xsram_0_12 gnd gnd n_bl0_13 gnd n_br0_13 gnd vdd_unselected gnd memorycell
Xwire0l13 n_bl0_13 n_bl0_14 wire Rw=wire_memorycell_vertical_res/64 Cw=wire_memorycell_vertical_cap/64
Xwire0r13 n_br0_13 n_br0_14 wire Rw=wire_memorycell_vertical_res/64 Cw=wire_memorycell_vertical_cap/64
Xsram_0_13 gnd gnd n_bl0_14 gnd n_br0_14 gnd vdd_unselected gnd memorycell
Xwire0l14 n_bl0_14 n_bl0_15 wire Rw=wire_memorycell_vertical_res/64 Cw=wire_memorycell_vertical_cap/64
Xwire0r14 n_br0_14 n_br0_15 wire Rw=wire_memorycell_vertical_res/64 Cw=wire_memorycell_vertical_cap/64
Xsram_0_14 gnd gnd n_bl0_15 gnd n_br0_15 gnd vdd_unselected gnd memorycell
Xwire0l15 n_bl0_15 n_bl0_16 wire Rw=wire_memorycell_vertical_res/64 Cw=wire_memorycell_vertical_cap/64
Xwire0r15 n_br0_15 n_br0_16 wire Rw=wire_memorycell_vertical_res/64 Cw=wire_memorycell_vertical_cap/64
Xsram_0_15 gnd gnd n_bl0_16 gnd n_br0_16 gnd vdd_unselected gnd memorycell
Xwire0l16 n_bl0_16 n_bl0_17 wire Rw=wire_memorycell_vertical_res/64 Cw=wire_memorycell_vertical_cap/64
Xwire0r16 n_br0_16 n_br0_17 wire Rw=wire_memorycell_vertical_res/64 Cw=wire_memorycell_vertical_cap/64
Xsram_0_16 gnd gnd n_bl0_17 gnd n_br0_17 gnd vdd_unselected gnd memorycell
Xwire0l17 n_bl0_17 n_bl0_18 wire Rw=wire_memorycell_vertical_res/64 Cw=wire_memorycell_vertical_cap/64
Xwire0r17 n_br0_17 n_br0_18 wire Rw=wire_memorycell_vertical_res/64 Cw=wire_memorycell_vertical_cap/64
Xsram_0_17 gnd gnd n_bl0_18 gnd n_br0_18 gnd vdd_unselected gnd memorycell
Xwire0l18 n_bl0_18 n_bl0_19 wire Rw=wire_memorycell_vertical_res/64 Cw=wire_memorycell_vertical_cap/64
Xwire0r18 n_br0_18 n_br0_19 wire Rw=wire_memorycell_vertical_res/64 Cw=wire_memorycell_vertical_cap/64
Xsram_0_18 gnd gnd n_bl0_19 gnd n_br0_19 gnd vdd_unselected gnd memorycell
Xwire0l19 n_bl0_19 n_bl0_20 wire Rw=wire_memorycell_vertical_res/64 Cw=wire_memorycell_vertical_cap/64
Xwire0r19 n_br0_19 n_br0_20 wire Rw=wire_memorycell_vertical_res/64 Cw=wire_memorycell_vertical_cap/64
Xsram_0_19 gnd gnd n_bl0_20 gnd n_br0_20 gnd vdd_unselected gnd memorycell
Xwire0l20 n_bl0_20 n_bl0_21 wire Rw=wire_memorycell_vertical_res/64 Cw=wire_memorycell_vertical_cap/64
Xwire0r20 n_br0_20 n_br0_21 wire Rw=wire_memorycell_vertical_res/64 Cw=wire_memorycell_vertical_cap/64
Xsram_0_20 gnd gnd n_bl0_21 gnd n_br0_21 gnd vdd_unselected gnd memorycell
Xwire0l21 n_bl0_21 n_bl0_22 wire Rw=wire_memorycell_vertical_res/64 Cw=wire_memorycell_vertical_cap/64
Xwire0r21 n_br0_21 n_br0_22 wire Rw=wire_memorycell_vertical_res/64 Cw=wire_memorycell_vertical_cap/64
Xsram_0_21 gnd gnd n_bl0_22 gnd n_br0_22 gnd vdd_unselected gnd memorycell
Xwire0l22 n_bl0_22 n_bl0_23 wire Rw=wire_memorycell_vertical_res/64 Cw=wire_memorycell_vertical_cap/64
Xwire0r22 n_br0_22 n_br0_23 wire Rw=wire_memorycell_vertical_res/64 Cw=wire_memorycell_vertical_cap/64
Xsram_0_22 gnd gnd n_bl0_23 gnd n_br0_23 gnd vdd_unselected gnd memorycell
Xwire0l23 n_bl0_23 n_bl0_24 wire Rw=wire_memorycell_vertical_res/64 Cw=wire_memorycell_vertical_cap/64
Xwire0r23 n_br0_23 n_br0_24 wire Rw=wire_memorycell_vertical_res/64 Cw=wire_memorycell_vertical_cap/64
Xsram_0_23 gnd gnd n_bl0_24 gnd n_br0_24 gnd vdd_unselected gnd memorycell
Xwire0l24 n_bl0_24 n_bl0_25 wire Rw=wire_memorycell_vertical_res/64 Cw=wire_memorycell_vertical_cap/64
Xwire0r24 n_br0_24 n_br0_25 wire Rw=wire_memorycell_vertical_res/64 Cw=wire_memorycell_vertical_cap/64
Xsram_0_24 gnd gnd n_bl0_25 gnd n_br0_25 gnd vdd_unselected gnd memorycell
Xwire0l25 n_bl0_25 n_bl0_26 wire Rw=wire_memorycell_vertical_res/64 Cw=wire_memorycell_vertical_cap/64
Xwire0r25 n_br0_25 n_br0_26 wire Rw=wire_memorycell_vertical_res/64 Cw=wire_memorycell_vertical_cap/64
Xsram_0_25 gnd gnd n_bl0_26 gnd n_br0_26 gnd vdd_unselected gnd memorycell
Xwire0l26 n_bl0_26 n_bl0_27 wire Rw=wire_memorycell_vertical_res/64 Cw=wire_memorycell_vertical_cap/64
Xwire0r26 n_br0_26 n_br0_27 wire Rw=wire_memorycell_vertical_res/64 Cw=wire_memorycell_vertical_cap/64
Xsram_0_26 gnd gnd n_bl0_27 gnd n_br0_27 gnd vdd_unselected gnd memorycell
Xwire0l27 n_bl0_27 n_bl0_28 wire Rw=wire_memorycell_vertical_res/64 Cw=wire_memorycell_vertical_cap/64
Xwire0r27 n_br0_27 n_br0_28 wire Rw=wire_memorycell_vertical_res/64 Cw=wire_memorycell_vertical_cap/64
Xsram_0_27 gnd gnd n_bl0_28 gnd n_br0_28 gnd vdd_unselected gnd memorycell
Xwire0l28 n_bl0_28 n_bl0_29 wire Rw=wire_memorycell_vertical_res/64 Cw=wire_memorycell_vertical_cap/64
Xwire0r28 n_br0_28 n_br0_29 wire Rw=wire_memorycell_vertical_res/64 Cw=wire_memorycell_vertical_cap/64
Xsram_0_28 gnd gnd n_bl0_29 gnd n_br0_29 gnd vdd_unselected gnd memorycell
Xwire0l29 n_bl0_29 n_bl0_30 wire Rw=wire_memorycell_vertical_res/64 Cw=wire_memorycell_vertical_cap/64
Xwire0r29 n_br0_29 n_br0_30 wire Rw=wire_memorycell_vertical_res/64 Cw=wire_memorycell_vertical_cap/64
Xsram_0_29 gnd gnd n_bl0_30 gnd n_br0_30 gnd vdd_unselected gnd memorycell
Xwire0l30 n_bl0_30 n_bl0_31 wire Rw=wire_memorycell_vertical_res/64 Cw=wire_memorycell_vertical_cap/64
Xwire0r30 n_br0_30 n_br0_31 wire Rw=wire_memorycell_vertical_res/64 Cw=wire_memorycell_vertical_cap/64
Xsram_0_30 gnd gnd n_bl0_31 gnd n_br0_31 gnd vdd_unselected gnd memorycell
Xwire0l31 n_bl0_31 n_bl0_32 wire Rw=wire_memorycell_vertical_res/64 Cw=wire_memorycell_vertical_cap/64
Xwire0r31 n_br0_31 n_br0_32 wire Rw=wire_memorycell_vertical_res/64 Cw=wire_memorycell_vertical_cap/64
Xsram_0_31 gnd gnd n_bl0_32 gnd n_br0_32 gnd vdd_unselected gnd memorycell
Xwire0l32 n_bl0_32 n_bl0_33 wire Rw=wire_memorycell_vertical_res/64 Cw=wire_memorycell_vertical_cap/64
Xwire0r32 n_br0_32 n_br0_33 wire Rw=wire_memorycell_vertical_res/64 Cw=wire_memorycell_vertical_cap/64
Xsram_0_32 gnd gnd n_bl0_33 gnd n_br0_33 gnd vdd_unselected gnd memorycell
Xwire0l33 n_bl0_33 n_bl0_34 wire Rw=wire_memorycell_vertical_res/64 Cw=wire_memorycell_vertical_cap/64
Xwire0r33 n_br0_33 n_br0_34 wire Rw=wire_memorycell_vertical_res/64 Cw=wire_memorycell_vertical_cap/64
Xsram_0_33 gnd gnd n_bl0_34 gnd n_br0_34 gnd vdd_unselected gnd memorycell
Xwire0l34 n_bl0_34 n_bl0_35 wire Rw=wire_memorycell_vertical_res/64 Cw=wire_memorycell_vertical_cap/64
Xwire0r34 n_br0_34 n_br0_35 wire Rw=wire_memorycell_vertical_res/64 Cw=wire_memorycell_vertical_cap/64
Xsram_0_34 gnd gnd n_bl0_35 gnd n_br0_35 gnd vdd_unselected gnd memorycell
Xwire0l35 n_bl0_35 n_bl0_36 wire Rw=wire_memorycell_vertical_res/64 Cw=wire_memorycell_vertical_cap/64
Xwire0r35 n_br0_35 n_br0_36 wire Rw=wire_memorycell_vertical_res/64 Cw=wire_memorycell_vertical_cap/64
Xsram_0_35 gnd gnd n_bl0_36 gnd n_br0_36 gnd vdd_unselected gnd memorycell